Version 4
SHEET 1 880 872
WIRE -1088 -16 -1200 -16
WIRE -960 -16 -1008 -16
WIRE -832 -16 -880 -16
WIRE -1200 80 -1200 -16
WIRE -1088 80 -1200 80
WIRE -960 80 -1008 80
WIRE -832 80 -832 -16
WIRE -832 80 -880 80
WIRE -720 80 -832 80
WIRE -576 80 -720 80
WIRE -544 80 -576 80
WIRE -832 112 -832 80
WIRE -720 112 -720 80
WIRE -576 144 -576 80
WIRE -832 208 -832 176
WIRE -1200 320 -1200 80
WIRE -832 320 -832 288
WIRE -832 320 -1200 320
WIRE -720 320 -720 176
WIRE -720 320 -832 320
WIRE -576 320 -576 224
WIRE -576 320 -720 320
WIRE -1200 336 -1200 320
WIRE -1088 496 -1200 496
WIRE -960 496 -1008 496
WIRE -832 496 -880 496
WIRE -1200 592 -1200 496
WIRE -1088 592 -1200 592
WIRE -960 592 -1008 592
WIRE -832 592 -832 496
WIRE -832 592 -880 592
WIRE -720 592 -832 592
WIRE -576 592 -720 592
WIRE -544 592 -576 592
WIRE -832 624 -832 592
WIRE -720 624 -720 592
WIRE -576 656 -576 592
WIRE -832 720 -832 688
WIRE -1200 832 -1200 592
WIRE -832 832 -832 800
WIRE -832 832 -1200 832
WIRE -720 832 -720 688
WIRE -720 832 -832 832
WIRE -576 832 -576 736
WIRE -576 832 -720 832
WIRE -1200 848 -1200 832
FLAG -544 80 out1
FLAG -1200 336 0
FLAG -544 592 out2
FLAG -1200 848 0
SYMBOL ind -1104 0 R270
WINDOW 0 32 56 VTop 2
WINDOW 3 5 56 VBottom 2
SYMATTR InstName L1
SYMATTR Value 264n
SYMBOL ind -1104 96 R270
WINDOW 0 32 56 VTop 2
WINDOW 3 5 56 VBottom 2
SYMATTR InstName L2
SYMATTR Value 2.64µ
SYMBOL res -864 -32 R90
WINDOW 0 0 56 VBottom 2
WINDOW 3 32 56 VTop 2
SYMATTR InstName R1
SYMATTR Value 37m
SYMBOL res -864 64 R90
WINDOW 0 0 56 VBottom 2
WINDOW 3 32 56 VTop 2
SYMATTR InstName R2
SYMATTR Value 70m
SYMBOL cap -848 112 R0
SYMATTR InstName C1
SYMATTR Value 80µ
SYMBOL res -848 192 R0
SYMATTR InstName R3
SYMATTR Value 14m
SYMBOL cap -736 112 R0
SYMATTR InstName C2
SYMATTR Value 3µ
SYMBOL ind -1104 512 R270
WINDOW 0 32 56 VTop 2
WINDOW 3 5 56 VBottom 2
SYMATTR InstName L3
SYMATTR Value 176n
SYMBOL ind -1104 608 R270
WINDOW 0 32 56 VTop 2
WINDOW 3 5 56 VBottom 2
SYMATTR InstName L4
SYMATTR Value 2.64µ
SYMBOL res -864 480 R90
WINDOW 0 0 56 VBottom 2
WINDOW 3 32 56 VTop 2
SYMATTR InstName R4
SYMATTR Value 37m
SYMBOL res -864 576 R90
WINDOW 0 0 56 VBottom 2
WINDOW 3 32 56 VTop 2
SYMATTR InstName R5
SYMATTR Value 70m
SYMBOL cap -848 624 R0
SYMATTR InstName C3
SYMATTR Value 120µ
SYMBOL res -848 704 R0
SYMATTR InstName R6
SYMATTR Value 56m
SYMBOL cap -736 624 R0
SYMATTR InstName C4
SYMATTR Value 3µ
SYMBOL current -576 224 R180
WINDOW 0 24 80 Left 2
WINDOW 3 24 0 Left 2
WINDOW 123 24 -28 Left 2
WINDOW 39 0 0 Left 2
SYMATTR InstName I1
SYMATTR Value ""
SYMATTR Value2 AC 1
SYMBOL current -576 736 R180
WINDOW 0 24 80 Left 2
WINDOW 3 24 0 Left 2
WINDOW 123 24 -28 Left 2
WINDOW 39 0 0 Left 2
SYMATTR InstName I2
SYMATTR Value ""
SYMATTR Value2 AC 1
TEXT -1264 80 Right 2 ;MSS5121-332\n3.3uH 20%\nSeries R=70mOhm\nIsat=2A, Irms=2.3A
TEXT -1272 -64 Right 2 ;PFL2510-221\n220nH 20%\nSeries R=37-47mOhm\nIsat=3.4A, Irms=2.5A
TEXT -1264 336 Right 2 ;50PEV100M10X10.5\n100uF 20% ESR=28mOhm\nRipple Current rating = 2000mA
TEXT -1264 496 Right 2 ;C1206C475K5PACTU\n4.7uF, 3uF after 24V DC bias
TEXT -1504 256 Left 2 !.ac dec 100 100 1Meg
TEXT -1264 640 Right 2 ;Pout(max)=6W\nVin(min)=10.5V\nIin(max)=0.57A\nZin=18ohms
TEXT -936 -168 Center 2 ;Restep Mother Module Bias Supply EMI Filter Impedance Model
TEXT -2504 352 Left 2 ;Copyright (c) 2021, RESTEP\n \nPermission is hereby granted, free of charge, to any person obtaining a copy\nof this software and associated documentation files (the "Software"), to deal\nin the Software without restriction, including without limitation the rights\nto use, copy, modify, merge, publish, distribute, sublicense, and/or sell\ncopies of the Software, and to permit persons to whom the Software is\nfurnished to do so, subject to the following conditions:\n \nThe above copyright notice and this permission notice shall be included in all\ncopies or substantial portions of the Software.\n \nTHE SOFTWARE IS PROVIDED "AS IS", WITHOUT WARRANTY OF ANY KIND, EXPRESS OR\nIMPLIED, INCLUDING BUT NOT LIMITED TO THE WARRANTIES OF MERCHANTABILITY,\nFITNESS FOR A PARTICULAR PURPOSE AND NONINFRINGEMENT. IN NO EVENT SHALL THE\nAUTHORS OR COPYRIGHT HOLDERS BE LIABLE FOR ANY CLAIM, DAMAGES OR OTHER\nLIABILITY, WHETHER IN AN ACTION OF CONTRACT, TORT OR OTHERWISE, ARISING FROM,\nOUT OF OR IN CONNECTION WITH THE SOFTWARE OR THE USE OR OTHER DEALINGS IN THE\nSOFTWARE.
